*Heading
** Job name: Job-1 Model name: Model-1
** Generated by: Abaqus/CAE 6.14-2
*Preprint, echo=NO, model=NO, history=NO, contact=NO
**
** PARTS
**
*Part, name=Part-1
*End Part
**  
**
** ASSEMBLY
**
*Assembly, name=Assembly
**  
*Instance, name=Part-1-1, part=Part-1
*Node
      1,          40.,           0.
      2,          50.,           0.
      3,   35.3553391,   35.3553391
      4,   32.1607666,   31.9806824
      5,           0.,          50.
      6,           0.,          40.
      7,           0.,           0.
      8,   49.0392647,   9.75451565
      9,   46.1939774,   19.1341724
     10,   41.5734825,    27.778511
     11,   34.6689758,   26.1767006
     12,   37.1945915,   18.2408409
     13,   38.9248924,   9.32963276
     14,    27.778511,   41.5734825
     15,   19.1341724,   46.1939774
     16,   9.75451565,   49.0392647
     17,   9.21033287,   39.1457291
     18,   18.2874947,   37.1774025
     19,   26.3787823,   34.4232254
     20,           0.,          30.
** ... 71 like lines cut
*Element, type=CPE8
 1,  1,  2,  8, 13, 35, 36, 37, 38
 2, 13,  8,  9, 12, 37, 39, 40, 41
 3, 12,  9, 10, 11, 40, 42, 43, 44
 4, 11, 10,  3,  4, 43, 45, 46, 47
 5,  3, 14, 19,  4, 48, 49, 50, 46
 6, 14, 15, 18, 19, 51, 52, 53, 49
 7, 15, 16, 17, 18, 54, 55, 56, 52
 8, 16,  5,  6, 17, 57, 58, 59, 55
 9,  6, 20, 26, 17, 60, 61, 62, 59
10, 20, 21, 27, 26, 63, 64, 65, 61
11, 21, 22, 28, 27, 66, 67, 68, 64
12, 22,  7, 23, 28, 69, 70, 71, 67
13, 17, 26, 29, 18, 62, 72, 73, 56
14, 26, 27, 30, 29, 65, 74, 75, 72
15, 27, 28, 31, 30, 68, 76, 77, 74
16, 28, 23, 24, 31, 71, 78, 79, 76
17, 18, 29, 32, 19, 73, 80, 81, 53
18, 29, 30, 33, 32, 75, 82, 83, 80
19, 30, 31, 34, 33, 77, 84, 85, 82
20, 31, 24, 25, 34, 79, 86, 87, 84
** ... 4 like lines cut
*Nset, nset=Set-1, generate
  1,  91,   1
*Elset, elset=Set-1, generate
  1,  24,   1
** Section: Section-1
*Solid Section, elset=Set-1, material=Material-1
1.,
*End Instance
**  
*Nset, nset=Set-3, instance=Part-1-1
  1,  2,  7, 23, 24, 25, 35, 70, 78, 86, 91
*Elset, elset=Set-3, instance=Part-1-1
  1, 12, 16, 20, 24
*Nset, nset=Set-4, instance=Part-1-1
  5,  6,  7, 20, 21, 22, 58, 60, 63, 66, 69
*Elset, elset=Set-4, instance=Part-1-1, generate
  8,  12,   1
*Nset, nset=Set-5, instance=Part-1-1
 5,
*End Assembly
** 
** MATERIALS
** 
*Material, name=Material-1
*Elastic
250000., 0.3
** 
** BOUNDARY CONDITIONS
** 
** Name: BC-1 Type: Displacement/Rotation
*Boundary
Set-3, 1, 1
Set-3, 2, 2
Set-3, 6, 6
** Name: BC-2 Type: Displacement/Rotation
*Boundary
Set-4, 1, 1
** ----------------------------------------------------------------
** 
** STEP: Step-1
** 
*Step, name=Step-1, nlgeom=NO
*Static
0.01, 1., 1e-05, 1.
** 
** LOADS
** 
** Name: Load-1   Type: Concentrated force
*Cload
Set-5, 2, -5000.
** 
** OUTPUT REQUESTS
** 
*Restart, write, frequency=0
** 
** FIELD OUTPUT: F-Output-1
** 
*Output, field, variable=PRESELECT
** 
** HISTORY OUTPUT: H-Output-1
** 
*Output, history, variable=PRESELECT
*End Step
