*Heading
** Job name: Job-2 Model name: Model-1
** Generated by: Abaqus/CAE 6.14-2
*Preprint, echo=NO, model=NO, history=NO, contact=NO
**
** PARTS
**
*Part, name=Part-1
*End Part
**  
**
** ASSEMBLY
**
*Assembly, name=Assembly
**  
*Instance, name=Part-1-1, part=Part-1
*Node
      1,   35.7142868,           0.
      2,          50.,           0.
      3,   35.3553391,   35.3553391
      4,   29.7340851,   29.5791931
      5,           0.,          50.
      6,           0.,   35.7142868
      7,           0.,           0.
      8,   42.8571434,           0.
      9,   49.3844185,   7.82172346
     10,   47.5528259,   15.4508495
     11,   44.5503273,   22.6995258
     12,   40.4508514,   29.3892632
     13,   31.9199505,   31.8875408
     14,   31.2200012,   25.5896835
     15,   32.8992043,   19.9992905
     16,   34.2308693,   13.6490974
     17,   35.1026993,   6.91328096
     18,   29.3892632,   40.4508514
     19,   22.6995258,   44.5503273
     20,   15.4508495,   47.5528259
** ... 140 like lines cut
*Element, type=CPE8
 1,   1,   8,  35,  17,  59,  60,  61,  62
 2,   8,   2,   9,  35,  63,  64,  65,  60
 3,  17,  35,  36,  16,  61,  66,  67,  68
 4,  35,   9,  10,  36,  65,  69,  70,  66
 5,  16,  36,  37,  15,  67,  71,  72,  73
 6,  36,  10,  11,  37,  70,  74,  75,  71
 7,  15,  37,  38,  14,  72,  76,  77,  78
 8,  37,  11,  12,  38,  75,  79,  80,  76
 9,  14,  38,  13,   4,  77,  81,  82,  83
10,  38,  12,   3,  13,  80,  84,  85,  81
11,   3,  18,  39,  13,  86,  87,  88,  85
12,  18,  19,  40,  39,  89,  90,  91,  87
13,  19,  20,  41,  40,  92,  93,  94,  90
14,  20,  21,  42,  41,  95,  96,  97,  93
15,  21,   5,  22,  42,  98,  99, 100,  96
16,  13,  39,  26,   4,  88, 101, 102,  82
17,  39,  40,  25,  26,  91, 103, 104, 101
18,  40,  41,  24,  25,  94, 105, 106, 103
19,  41,  42,  23,  24,  97, 107, 108, 105
20,  42,  22,   6,  23, 100, 109, 110, 107
** ... 25 like lines cut
*Nset, nset=Set-1, generate
   1,  160,    1
*Elset, elset=Set-1, generate
  1,  45,   1
** Section: Section-1
*Solid Section, elset=Set-1, material=Material-1
1.,
*End Instance
**  
*Nset, nset=Set-3, instance=Part-1-1
   1,   2,   7,   8,  31,  32,  33,  34,  59,  63, 124, 134, 144, 154, 160
*Elset, elset=Set-3, instance=Part-1-1
  1,  2, 25, 30, 35, 40, 45
*Nset, nset=Set-4, instance=Part-1-1
   5,   6,   7,  22,  27,  28,  29,  30,  99, 109, 111, 114, 117, 120, 123
*Elset, elset=Set-4, instance=Part-1-1
 15, 20, 21, 22, 23, 24, 25
*Nset, nset=Set-5, instance=Part-1-1
 5,
*Nset, nset=Set-6, instance=Part-1-1
   1,   2,   7,   8,  31,  32,  33,  34,  59,  63, 124, 134, 144, 154, 160
*Elset, elset=Set-6, instance=Part-1-1
  1,  2, 25, 30, 35, 40, 45
*Nset, nset=Set-7, instance=Part-1-1
   1,   2,   7,   8,  31,  32,  33,  34,  59,  63, 124, 134, 144, 154, 160
*Elset, elset=Set-7, instance=Part-1-1
  1,  2, 25, 30, 35, 40, 45
*Nset, nset=Set-8, instance=Part-1-1
   5,   6,   7,  22,  27,  28,  29,  30,  99, 109, 111, 114, 117, 120, 123
*Elset, elset=Set-8, instance=Part-1-1
 15, 20, 21, 22, 23, 24, 25
*End Assembly
** 
** MATERIALS
** 
*Material, name=Material-1
*Elastic
250000., 0.3
** ----------------------------------------------------------------
** 
** STEP: Step-1
** 
*Step, name=Step-1, nlgeom=NO
*Static
0.01, 1., 1e-05, 1.
** 
** BOUNDARY CONDITIONS
** 
** Name: BC-1 Type: Displacement/Rotation
*Boundary
Set-7, 1, 1
Set-7, 2, 2
Set-7, 6, 6
** Name: BC-2 Type: Displacement/Rotation
*Boundary
Set-8, 1, 1
** 
** LOADS
** 
** Name: Load-1   Type: Concentrated force
*Cload
Set-5, 2, -5000.
** 
** OUTPUT REQUESTS
** 
*Restart, write, frequency=0
** 
** FIELD OUTPUT: F-Output-1
** 
*Output, field, variable=PRESELECT
** 
** HISTORY OUTPUT: H-Output-1
** 
*Output, history, variable=PRESELECT
*End Step
